#	Name: fe_dummies
#	Creation Time: 2025-12-13 17:06:38.504369

@<TRIPOS>MOLECULE
fe_dummies
	88	95
SMALL
NO_CHARGES

@<TRIPOS>ATOM
	1	Pd1	0.0022	-0.0018	-8.1519	Du	1	RES1	0
	2	Fe1	-7.2761	-7.2761	-7.2761	Fe	2	RES2	0
	3	N1	-8.8918	-8.8918	-8.8918	N.3	2	RES2	0
	4	N2	-6.0684	-8.5540	-8.5481	N.2	2	RES2	0
	5	N3	-5.4560	-6.1664	-7.8531	N.2	2	RES2	0
	6	N4	-3.6105	-4.9661	-8.1774	N.pl3	2	RES2	0
	7	N5	-1.0691	-1.6751	-8.1498	N.ar	2	RES2	0
	8	C1	-7.8857	-9.5783	-9.6933	C.3	2	RES2	0
	9	H1A	-8.3020	-10.3916	-10.0729	H	2	RES2	0
	10	H1B	-7.6501	-8.9878	-10.4526	H	2	RES2	0
	11	C2	-6.6528	-9.9679	-9.0300	C.3	2	RES2	0
	12	H2A	-6.0359	-10.4211	-9.6570	H	2	RES2	0
	13	H2B	-6.8336	-10.5679	-8.2614	H	2	RES2	0
	14	C3	-4.8535	-8.2576	-9.0068	C.2	2	RES2	0
	15	H3	-4.3089	-8.8350	-9.5252	H	2	RES2	0
	16	C4	-4.4870	-6.8761	-8.5806	C.2	2	RES2	0
	17	C5	-3.4390	-6.1810	-8.8494	C.2	2	RES2	0
	18	H5	-2.7041	-6.4425	-9.3899	H	2	RES2	0
	19	C6	-4.8020	-5.0816	-7.6121	C.2	2	RES2	0
	20	H6	-5.1617	-4.3943	-7.0609	H	2	RES2	0
	21	C9	-2.7061	-3.8676	-8.1497	C.ar	2	RES2	0
	22	C10	-1.8667	-3.6548	-9.1138	C.ar	2	RES2	0
	23	H10	-1.8190	-4.2927	-9.8180	H	2	RES2	0
	24	C7	-1.8436	-1.9946	-7.1207	C.ar	2	RES2	0
	25	H7	-1.8301	-1.4354	-6.3519	H	2	RES2	0
	26	C8	-2.6552	-3.0746	-7.1207	C.ar	2	RES2	0
	27	H8	-3.1963	-3.2579	-6.3603	H	2	RES2	0
	28	C11	-1.0180	-2.5284	-9.1788	C.ar	2	RES2	0
	29	H11	-0.4360	-2.3836	-9.9189	H	2	RES2	0
	30	N2	-8.5540	-8.5481	-6.0684	N.2	2	RES2	0
	31	N3	-6.1664	-7.8531	-5.4560	N.2	2	RES2	0
	32	N4	-4.9661	-8.1774	-3.6105	N.pl3	2	RES2	0
	33	N5	-1.6751	-8.1498	-1.0691	N.ar	2	RES2	0
	34	C1	-9.5783	-9.6933	-7.8857	C.3	2	RES2	0
	35	H1A	-10.3916	-10.0729	-8.3020	H	2	RES2	0
	36	H1B	-8.9878	-10.4526	-7.6501	H	2	RES2	0
	37	C2	-9.9679	-9.0300	-6.6528	C.3	2	RES2	0
	38	H2A	-10.4211	-9.6570	-6.0359	H	2	RES2	0
	39	H2B	-10.5679	-8.2614	-6.8336	H	2	RES2	0
	40	C3	-8.2576	-9.0068	-4.8535	C.2	2	RES2	0
	41	H3	-8.8350	-9.5252	-4.3089	H	2	RES2	0
	42	C4	-6.8761	-8.5806	-4.4870	C.2	2	RES2	0
	43	C5	-6.1810	-8.8494	-3.4390	C.2	2	RES2	0
	44	H5	-6.4425	-9.3899	-2.7041	H	2	RES2	0
	45	C6	-5.0816	-7.6121	-4.8020	C.2	2	RES2	0
	46	H6	-4.3943	-7.0609	-5.1617	H	2	RES2	0
	47	C9	-3.8676	-8.1497	-2.7061	C.ar	2	RES2	0
	48	C10	-3.6548	-9.1138	-1.8667	C.ar	2	RES2	0
	49	H10	-4.2927	-9.8180	-1.8190	H	2	RES2	0
	50	C7	-1.9946	-7.1207	-1.8436	C.ar	2	RES2	0
	51	H7	-1.4354	-6.3519	-1.8301	H	2	RES2	0
	52	C8	-3.0746	-7.1207	-2.6552	C.ar	2	RES2	0
	53	H8	-3.2579	-6.3603	-3.1963	H	2	RES2	0
	54	C11	-2.5284	-9.1788	-1.0180	C.ar	2	RES2	0
	55	H11	-2.3836	-9.9189	-0.4360	H	2	RES2	0
	56	N2	-8.5481	-6.0684	-8.5540	N.2	2	RES2	0
	57	N3	-7.8531	-5.4560	-6.1664	N.2	2	RES2	0
	58	N4	-8.1774	-3.6105	-4.9661	N.pl3	2	RES2	0
	59	N5	-8.1498	-1.0691	-1.6751	N.ar	2	RES2	0
	60	C1	-9.6933	-7.8857	-9.5783	C.3	2	RES2	0
	61	H1A	-10.0729	-8.3020	-10.3916	H	2	RES2	0
	62	H1B	-10.4526	-7.6501	-8.9878	H	2	RES2	0
	63	C2	-9.0300	-6.6528	-9.9679	C.3	2	RES2	0
	64	H2A	-9.6570	-6.0359	-10.4211	H	2	RES2	0
	65	H2B	-8.2614	-6.8336	-10.5679	H	2	RES2	0
	66	C3	-9.0068	-4.8535	-8.2576	C.2	2	RES2	0
	67	H3	-9.5252	-4.3089	-8.8350	H	2	RES2	0
	68	C4	-8.5806	-4.4870	-6.8761	C.2	2	RES2	0
	69	C5	-8.8494	-3.4390	-6.1810	C.2	2	RES2	0
	70	H5	-9.3899	-2.7041	-6.4425	H	2	RES2	0
	71	C6	-7.6121	-4.8020	-5.0816	C.2	2	RES2	0
	72	H6	-7.0609	-5.1617	-4.3943	H	2	RES2	0
	73	C9	-8.1497	-2.7061	-3.8676	C.ar	2	RES2	0
	74	C10	-9.1138	-1.8667	-3.6548	C.ar	2	RES2	0
	75	H10	-9.8180	-1.8190	-4.2927	H	2	RES2	0
	76	C7	-7.1207	-1.8436	-1.9946	C.ar	2	RES2	0
	77	H7	-6.3519	-1.8301	-1.4354	H	2	RES2	0
	78	C8	-7.1207	-2.6552	-3.0746	C.ar	2	RES2	0
	79	H8	-6.3603	-3.1963	-3.2579	H	2	RES2	0
	80	C11	-9.1788	-1.0180	-2.5284	C.ar	2	RES2	0
	81	H11	-9.9189	-0.4360	-2.3836	H	2	RES2	0
	82	Pd1	-0.0018	-8.1519	0.0022	Du	3	RES3	0
	83	Pd1	-8.1519	0.0022	-0.0018	Du	4	RES4	0
	84	Pd1	0.0000	-0.0001	-8.1510	Any	1	RES1	0
	85	N5	-1.0688	-1.6750	-8.1529	Du	1	RES1	0
	86	N5	-1.6750	1.0688	-8.1529	Du	1	RES1	0
	87	N5	1.0688	1.6750	-8.1529	Du	1	RES1	0
	88	N5	1.6750	-1.0688	-8.1529	Du	1	RES1	0
@<TRIPOS>BOND
	1	2	4	1
	2	2	5	1
	3	2	30	1
	4	2	31	1
	5	2	56	1
	6	2	57	1
	7	3	8	1
	8	3	34	1
	9	3	60	1
	10	4	11	1
	11	4	14	2
	12	5	16	1
	13	5	19	2
	14	6	17	1
	15	6	19	1
	16	6	21	1
	17	7	24	ar
	18	7	28	ar
	19	8	9	1
	20	8	10	1
	21	8	11	1
	22	11	12	1
	23	11	13	1
	24	14	15	1
	25	14	16	1
	26	16	17	2
	27	17	18	1
	28	19	20	1
	29	21	22	ar
	30	21	26	ar
	31	22	23	1
	32	22	28	ar
	33	24	25	1
	34	24	26	ar
	35	26	27	1
	36	28	29	1
	37	30	37	1
	38	30	40	2
	39	31	42	1
	40	31	45	2
	41	32	43	1
	42	32	45	1
	43	32	47	1
	44	33	50	ar
	45	33	54	ar
	46	34	35	1
	47	34	36	1
	48	34	37	1
	49	37	38	1
	50	37	39	1
	51	40	41	1
	52	40	42	1
	53	42	43	2
	54	43	44	1
	55	45	46	1
	56	47	48	ar
	57	47	52	ar
	58	48	49	1
	59	48	54	ar
	60	50	51	1
	61	50	52	ar
	62	52	53	1
	63	54	55	1
	64	56	63	1
	65	56	66	2
	66	57	68	1
	67	57	71	2
	68	58	69	1
	69	58	71	1
	70	58	73	1
	71	59	76	ar
	72	59	80	ar
	73	60	61	1
	74	60	62	1
	75	60	63	1
	76	63	64	1
	77	63	65	1
	78	66	67	1
	79	66	68	1
	80	68	69	2
	81	69	70	1
	82	71	72	1
	83	73	74	ar
	84	73	78	ar
	85	74	75	1
	86	74	80	ar
	87	76	77	1
	88	76	78	ar
	89	78	79	1
	90	80	81	1
	91	84	85	1
	92	84	86	1
	93	84	87	1
	94	84	88	1
	95	7	84	1
