@<TRIPOS>MOLECULE
shelxl
   316   360     1     0     0
SMALL
NO_CHARGES
****
Generated from the CSD

@<TRIPOS>ATOM
     1 Fe1      5.0939   5.0939   5.0939   Fe        1 RES1   0.0000
     2 N1       5.8689   4.4563   6.8109   N.2       1 RES1   0.0000
     3 N2       3.4943   4.1976   5.8583   N.2       1 RES1   0.0000
     4 C1       7.1503   4.5437   7.2416   C.2       1 RES1   0.0000
     5 H1       7.8025   4.9545   6.6872   H         1 RES1   0.0000
     6 C2       7.5220   4.0458   8.4656   C.2       1 RES1   0.0000
     7 H2       8.4308   4.1089   8.7330   H         1 RES1   0.0000
     8 C3       6.6068   3.4545   9.3199   C.2       1 RES1   0.0000
     9 H3       6.8698   3.1306  10.1743   H         1 RES1   0.0000
    10 C4       5.2959   3.3567   8.8895   C.2       1 RES1   0.0000
    11 H4       4.6328   2.9566   9.4373   H         1 RES1   0.0000
    12 C5       4.9763   3.8593   7.6281   C.2       1 RES1   0.0000
    13 C6       3.6458   3.7436   7.0351   C.2       1 RES1   0.0000
    14 H6       2.9262   3.3436   7.5090   H         1 RES1   0.0000
    15 C7       2.1894   3.9465   5.2528   C.2       1 RES1   0.0000
    16 C8       1.3246   4.9591   4.9678   C.2       1 RES1   0.0000
    17 H8       1.5609   5.8568   5.1741   H         1 RES1   0.0000
    18 C9       0.1124   4.6848   4.3830   C.2       1 RES1   0.0000
    19 H9      -0.4848   5.3937   4.1741   H         1 RES1   0.0000
    20 C10     -0.2402   3.3708   4.0973   C.2       1 RES1   0.0000
    21 C11      0.6329   2.3568   4.4589   C.2       1 RES1   0.0000
    22 H11      0.3805   1.4501   4.3284   H         1 RES1   0.0000
    23 C12      1.8238   2.6388   4.9893   C.2       1 RES1   0.0000
    24 H12      2.4284   1.9327   5.1872   H         1 RES1   0.0000
    25 C13     -1.5118   3.0329   3.3610   C.2       1 RES1   0.0000
    26 C14     -2.2557   1.9101   3.7558   C.2       1 RES1   0.0000
    27 H14     -1.9957   1.4196   4.5284   H         1 RES1   0.0000
    28 N1      -6.8109  -5.8689   4.4563   N.2       1 RES1   0.0000
    29 N2      -5.8583  -3.4943   4.1976   N.2       1 RES1   0.0000
    30 C1      -7.2416  -7.1503   4.5437   C.2       1 RES1   0.0000
    31 H1      -6.6872  -7.8025   4.9545   H         1 RES1   0.0000
    32 C2      -8.4656  -7.5220   4.0458   C.2       1 RES1   0.0000
    33 H2      -8.7330  -8.4308   4.1089   H         1 RES1   0.0000
    34 C3      -9.3199  -6.6068   3.4545   C.2       1 RES1   0.0000
    35 H3     -10.1743  -6.8698   3.1306   H         1 RES1   0.0000
    36 C4      -8.8895  -5.2959   3.3567   C.2       1 RES1   0.0000
    37 H4      -9.4373  -4.6328   2.9566   H         1 RES1   0.0000
    38 C5      -7.6281  -4.9763   3.8593   C.2       1 RES1   0.0000
    39 C6      -7.0351  -3.6458   3.7436   C.2       1 RES1   0.0000
    40 H6      -7.5090  -2.9262   3.3436   H         1 RES1   0.0000
    41 C7      -5.2528  -2.1894   3.9465   C.2       1 RES1   0.0000
    42 C8      -4.9678  -1.3246   4.9591   C.2       1 RES1   0.0000
    43 H8      -5.1741  -1.5609   5.8568   H         1 RES1   0.0000
    44 C9      -4.3830  -0.1124   4.6848   C.2       1 RES1   0.0000
    45 H9      -4.1741   0.4848   5.3937   H         1 RES1   0.0000
    46 C10     -4.0973   0.2402   3.3708   C.2       1 RES1   0.0000
    47 C11     -4.4589  -0.6329   2.3568   C.2       1 RES1   0.0000
    48 H11     -4.3284  -0.3804   1.4501   H         1 RES1   0.0000
    49 C12     -4.9893  -1.8238   2.6388   C.2       1 RES1   0.0000
    50 H12     -5.1872  -2.4284   1.9327   H         1 RES1   0.0000
    51 C13     -3.3610   1.5118   3.0329   C.2       1 RES1   0.0000
    52 C14     -3.7558   2.2557   1.9101   C.2       1 RES1   0.0000
    53 H14     -4.5284   1.9957   1.4196   H         1 RES1   0.0000
    54 N1      -4.4563   6.8109  -5.8689   N.2       1 RES1   0.0000
    55 N2      -4.1976   5.8583  -3.4943   N.2       1 RES1   0.0000
    56 C1      -4.5437   7.2416  -7.1503   C.2       1 RES1   0.0000
    57 H1      -4.9545   6.6872  -7.8025   H         1 RES1   0.0000
    58 C2      -4.0458   8.4656  -7.5220   C.2       1 RES1   0.0000
    59 H2      -4.1089   8.7330  -8.4308   H         1 RES1   0.0000
    60 C3      -3.4545   9.3199  -6.6068   C.2       1 RES1   0.0000
    61 H3      -3.1306  10.1743  -6.8698   H         1 RES1   0.0000
    62 C4      -3.3567   8.8895  -5.2959   C.2       1 RES1   0.0000
    63 H4      -2.9566   9.4373  -4.6328   H         1 RES1   0.0000
    64 C5      -3.8593   7.6281  -4.9763   C.2       1 RES1   0.0000
    65 C6      -3.7436   7.0351  -3.6458   C.2       1 RES1   0.0000
    66 H6      -3.3436   7.5090  -2.9262   H         1 RES1   0.0000
    67 C7      -3.9465   5.2528  -2.1894   C.2       1 RES1   0.0000
    68 C8      -4.9591   4.9678  -1.3246   C.2       1 RES1   0.0000
    69 H8      -5.8568   5.1741  -1.5609   H         1 RES1   0.0000
    70 C9      -4.6848   4.3830  -0.1124   C.2       1 RES1   0.0000
    71 H9      -5.3937   4.1741   0.4848   H         1 RES1   0.0000
    72 C10     -3.3708   4.0973   0.2402   C.2       1 RES1   0.0000
    73 C11     -2.3568   4.4589  -0.6329   C.2       1 RES1   0.0000
    74 H11     -1.4501   4.3284  -0.3805   H         1 RES1   0.0000
    75 C12     -2.6388   4.9893  -1.8238   C.2       1 RES1   0.0000
    76 H12     -1.9327   5.1872  -2.4284   H         1 RES1   0.0000
    77 C13     -3.0329   3.3610   1.5118   C.2       1 RES1   0.0000
    78 C14     -1.9101   3.7558   2.2557   C.2       1 RES1   0.0000
    79 H14     -1.4196   4.5284   1.9957   H         1 RES1   0.0000
    80 Fe1     -5.0939  -5.0939   5.0939   Fe        1 RES1   0.0000
    81 N1      -5.8689  -4.4563   6.8109   N.2       1 RES1   0.0000
    82 N2      -3.4943  -4.1976   5.8583   N.2       1 RES1   0.0000
    83 C1      -7.1503  -4.5437   7.2416   C.2       1 RES1   0.0000
    84 H1      -7.8025  -4.9545   6.6872   H         1 RES1   0.0000
    85 C2      -7.5220  -4.0458   8.4656   C.2       1 RES1   0.0000
    86 H2      -8.4308  -4.1089   8.7330   H         1 RES1   0.0000
    87 C3      -6.6068  -3.4545   9.3199   C.2       1 RES1   0.0000
    88 H3      -6.8698  -3.1306  10.1743   H         1 RES1   0.0000
    89 C4      -5.2959  -3.3567   8.8895   C.2       1 RES1   0.0000
    90 H4      -4.6328  -2.9566   9.4373   H         1 RES1   0.0000
    91 C5      -4.9763  -3.8593   7.6281   C.2       1 RES1   0.0000
    92 C6      -3.6458  -3.7436   7.0351   C.2       1 RES1   0.0000
    93 H6      -2.9262  -3.3436   7.5090   H         1 RES1   0.0000
    94 C7      -2.1894  -3.9465   5.2528   C.2       1 RES1   0.0000
    95 C8      -1.3246  -4.9591   4.9678   C.2       1 RES1   0.0000
    96 H8      -1.5609  -5.8568   5.1741   H         1 RES1   0.0000
    97 C9      -0.1124  -4.6848   4.3830   C.2       1 RES1   0.0000
    98 H9       0.4848  -5.3937   4.1741   H         1 RES1   0.0000
    99 C10      0.2402  -3.3708   4.0973   C.2       1 RES1   0.0000
   100 C11     -0.6329  -2.3568   4.4589   C.2       1 RES1   0.0000
   101 H11     -0.3804  -1.4501   4.3284   H         1 RES1   0.0000
   102 C12     -1.8238  -2.6388   4.9893   C.2       1 RES1   0.0000
   103 H12     -2.4284  -1.9327   5.1872   H         1 RES1   0.0000
   104 C13      1.5118  -3.0329   3.3610   C.2       1 RES1   0.0000
   105 C14      2.2557  -1.9101   3.7558   C.2       1 RES1   0.0000
   106 H14      1.9957  -1.4196   4.5284   H         1 RES1   0.0000
   107 N1       6.8109   5.8689   4.4563   N.2       1 RES1   0.0000
   108 N2       5.8583   3.4943   4.1976   N.2       1 RES1   0.0000
   109 C1       7.2416   7.1503   4.5437   C.2       1 RES1   0.0000
   110 H1       6.6872   7.8025   4.9545   H         1 RES1   0.0000
   111 C2       8.4656   7.5220   4.0458   C.2       1 RES1   0.0000
   112 H2       8.7330   8.4308   4.1089   H         1 RES1   0.0000
   113 C3       9.3199   6.6068   3.4545   C.2       1 RES1   0.0000
   114 H3      10.1743   6.8698   3.1306   H         1 RES1   0.0000
   115 C4       8.8895   5.2959   3.3567   C.2       1 RES1   0.0000
   116 H4       9.4373   4.6328   2.9566   H         1 RES1   0.0000
   117 C5       7.6281   4.9763   3.8593   C.2       1 RES1   0.0000
   118 C6       7.0351   3.6458   3.7436   C.2       1 RES1   0.0000
   119 H6       7.5090   2.9262   3.3436   H         1 RES1   0.0000
   120 C7       5.2528   2.1894   3.9465   C.2       1 RES1   0.0000
   121 C8       4.9678   1.3246   4.9591   C.2       1 RES1   0.0000
   122 H8       5.1741   1.5609   5.8568   H         1 RES1   0.0000
   123 C9       4.3830   0.1124   4.6848   C.2       1 RES1   0.0000
   124 H9       4.1741  -0.4848   5.3937   H         1 RES1   0.0000
   125 C10      4.0973  -0.2402   3.3708   C.2       1 RES1   0.0000
   126 C11      4.4589   0.6329   2.3568   C.2       1 RES1   0.0000
   127 H11      4.3284   0.3805   1.4501   H         1 RES1   0.0000
   128 C12      4.9893   1.8238   2.6388   C.2       1 RES1   0.0000
   129 H12      5.1872   2.4284   1.9327   H         1 RES1   0.0000
   130 C13      3.3610  -1.5118   3.0329   C.2       1 RES1   0.0000
   131 C14      3.7558  -2.2557   1.9101   C.2       1 RES1   0.0000
   132 H14      4.5284  -1.9957   1.4196   H         1 RES1   0.0000
   133 N1       4.4563  -6.8109  -5.8689   N.2       1 RES1   0.0000
   134 N2       4.1976  -5.8583  -3.4943   N.2       1 RES1   0.0000
   135 C1       4.5437  -7.2416  -7.1503   C.2       1 RES1   0.0000
   136 H1       4.9545  -6.6872  -7.8025   H         1 RES1   0.0000
   137 C2       4.0458  -8.4656  -7.5220   C.2       1 RES1   0.0000
   138 H2       4.1089  -8.7330  -8.4308   H         1 RES1   0.0000
   139 C3       3.4545  -9.3199  -6.6068   C.2       1 RES1   0.0000
   140 H3       3.1306 -10.1743  -6.8698   H         1 RES1   0.0000
   141 C4       3.3567  -8.8895  -5.2959   C.2       1 RES1   0.0000
   142 H4       2.9566  -9.4373  -4.6328   H         1 RES1   0.0000
   143 C5       3.8593  -7.6281  -4.9763   C.2       1 RES1   0.0000
   144 C6       3.7436  -7.0351  -3.6458   C.2       1 RES1   0.0000
   145 H6       3.3436  -7.5090  -2.9262   H         1 RES1   0.0000
   146 C7       3.9465  -5.2528  -2.1894   C.2       1 RES1   0.0000
   147 C8       4.9591  -4.9678  -1.3246   C.2       1 RES1   0.0000
   148 H8       5.8568  -5.1741  -1.5609   H         1 RES1   0.0000
   149 C9       4.6848  -4.3830  -0.1124   C.2       1 RES1   0.0000
   150 H9       5.3937  -4.1741   0.4848   H         1 RES1   0.0000
   151 C10      3.3708  -4.0973   0.2402   C.2       1 RES1   0.0000
   152 C11      2.3568  -4.4589  -0.6329   C.2       1 RES1   0.0000
   153 H11      1.4501  -4.3284  -0.3805   H         1 RES1   0.0000
   154 C12      2.6388  -4.9893  -1.8238   C.2       1 RES1   0.0000
   155 H12      1.9327  -5.1872  -2.4284   H         1 RES1   0.0000
   156 C13      3.0329  -3.3610   1.5118   C.2       1 RES1   0.0000
   157 C14      1.9101  -3.7558   2.2557   C.2       1 RES1   0.0000
   158 H14      1.4196  -4.5284   1.9957   H         1 RES1   0.0000
   159 Fe1     -5.0939   5.0939  -5.0939   Fe        1 RES1   0.0000
   160 N1      -5.8689   4.4563  -6.8109   N.2       1 RES1   0.0000
   161 N2      -3.4943   4.1976  -5.8583   N.2       1 RES1   0.0000
   162 C1      -7.1503   4.5437  -7.2416   C.2       1 RES1   0.0000
   163 H1      -7.8025   4.9545  -6.6872   H         1 RES1   0.0000
   164 C2      -7.5220   4.0458  -8.4656   C.2       1 RES1   0.0000
   165 H2      -8.4308   4.1089  -8.7330   H         1 RES1   0.0000
   166 C3      -6.6068   3.4545  -9.3199   C.2       1 RES1   0.0000
   167 H3      -6.8698   3.1306 -10.1743   H         1 RES1   0.0000
   168 C4      -5.2959   3.3567  -8.8895   C.2       1 RES1   0.0000
   169 H4      -4.6328   2.9566  -9.4373   H         1 RES1   0.0000
   170 C5      -4.9763   3.8593  -7.6281   C.2       1 RES1   0.0000
   171 C6      -3.6458   3.7436  -7.0351   C.2       1 RES1   0.0000
   172 H6      -2.9262   3.3436  -7.5090   H         1 RES1   0.0000
   173 C7      -2.1894   3.9465  -5.2528   C.2       1 RES1   0.0000
   174 C8      -1.3246   4.9591  -4.9678   C.2       1 RES1   0.0000
   175 H8      -1.5609   5.8568  -5.1741   H         1 RES1   0.0000
   176 C9      -0.1124   4.6848  -4.3830   C.2       1 RES1   0.0000
   177 H9       0.4848   5.3937  -4.1741   H         1 RES1   0.0000
   178 C10      0.2402   3.3708  -4.0973   C.2       1 RES1   0.0000
   179 C11     -0.6329   2.3568  -4.4589   C.2       1 RES1   0.0000
   180 H11     -0.3805   1.4501  -4.3284   H         1 RES1   0.0000
   181 C12     -1.8238   2.6388  -4.9893   C.2       1 RES1   0.0000
   182 H12     -2.4284   1.9327  -5.1872   H         1 RES1   0.0000
   183 C13      1.5118   3.0329  -3.3610   C.2       1 RES1   0.0000
   184 C14      2.2557   1.9101  -3.7558   C.2       1 RES1   0.0000
   185 H14      1.9957   1.4196  -4.5284   H         1 RES1   0.0000
   186 N1       6.8109  -5.8689  -4.4563   N.2       1 RES1   0.0000
   187 N2       5.8583  -3.4943  -4.1976   N.2       1 RES1   0.0000
   188 C1       7.2416  -7.1503  -4.5437   C.2       1 RES1   0.0000
   189 H1       6.6872  -7.8025  -4.9545   H         1 RES1   0.0000
   190 C2       8.4656  -7.5220  -4.0458   C.2       1 RES1   0.0000
   191 H2       8.7330  -8.4308  -4.1089   H         1 RES1   0.0000
   192 C3       9.3199  -6.6068  -3.4545   C.2       1 RES1   0.0000
   193 H3      10.1743  -6.8698  -3.1306   H         1 RES1   0.0000
   194 C4       8.8895  -5.2959  -3.3567   C.2       1 RES1   0.0000
   195 H4       9.4373  -4.6328  -2.9566   H         1 RES1   0.0000
   196 C5       7.6281  -4.9763  -3.8593   C.2       1 RES1   0.0000
   197 C6       7.0351  -3.6458  -3.7436   C.2       1 RES1   0.0000
   198 H6       7.5090  -2.9262  -3.3436   H         1 RES1   0.0000
   199 C7       5.2528  -2.1894  -3.9465   C.2       1 RES1   0.0000
   200 C8       4.9678  -1.3246  -4.9591   C.2       1 RES1   0.0000
   201 H8       5.1741  -1.5609  -5.8568   H         1 RES1   0.0000
   202 C9       4.3830  -0.1124  -4.6848   C.2       1 RES1   0.0000
   203 H9       4.1741   0.4848  -5.3937   H         1 RES1   0.0000
   204 C10      4.0973   0.2402  -3.3708   C.2       1 RES1   0.0000
   205 C11      4.4589  -0.6329  -2.3568   C.2       1 RES1   0.0000
   206 H11      4.3284  -0.3805  -1.4501   H         1 RES1   0.0000
   207 C12      4.9893  -1.8238  -2.6388   C.2       1 RES1   0.0000
   208 H12      5.1872  -2.4284  -1.9327   H         1 RES1   0.0000
   209 C13      3.3610   1.5118  -3.0329   C.2       1 RES1   0.0000
   210 C14      3.7558   2.2557  -1.9101   C.2       1 RES1   0.0000
   211 H14      4.5284   1.9957  -1.4196   H         1 RES1   0.0000
   212 N1       4.4563   6.8109   5.8689   N.2       1 RES1   0.0000
   213 N2       4.1976   5.8583   3.4943   N.2       1 RES1   0.0000
   214 C1       4.5437   7.2416   7.1503   C.2       1 RES1   0.0000
   215 H1       4.9545   6.6872   7.8025   H         1 RES1   0.0000
   216 C2       4.0458   8.4656   7.5220   C.2       1 RES1   0.0000
   217 H2       4.1089   8.7330   8.4308   H         1 RES1   0.0000
   218 C3       3.4545   9.3199   6.6068   C.2       1 RES1   0.0000
   219 H3       3.1306  10.1743   6.8698   H         1 RES1   0.0000
   220 C4       3.3567   8.8895   5.2959   C.2       1 RES1   0.0000
   221 H4       2.9566   9.4373   4.6328   H         1 RES1   0.0000
   222 C5       3.8593   7.6281   4.9763   C.2       1 RES1   0.0000
   223 C6       3.7436   7.0351   3.6458   C.2       1 RES1   0.0000
   224 H6       3.3436   7.5090   2.9262   H         1 RES1   0.0000
   225 C7       3.9465   5.2528   2.1894   C.2       1 RES1   0.0000
   226 C8       4.9591   4.9678   1.3246   C.2       1 RES1   0.0000
   227 H8       5.8568   5.1741   1.5609   H         1 RES1   0.0000
   228 C9       4.6848   4.3830   0.1124   C.2       1 RES1   0.0000
   229 H9       5.3937   4.1741  -0.4848   H         1 RES1   0.0000
   230 C10      3.3708   4.0973  -0.2402   C.2       1 RES1   0.0000
   231 C11      2.3568   4.4589   0.6329   C.2       1 RES1   0.0000
   232 H11      1.4501   4.3284   0.3805   H         1 RES1   0.0000
   233 C12      2.6388   4.9893   1.8238   C.2       1 RES1   0.0000
   234 H12      1.9327   5.1872   2.4284   H         1 RES1   0.0000
   235 C13      3.0329   3.3610  -1.5118   C.2       1 RES1   0.0000
   236 C14      1.9101   3.7558  -2.2557   C.2       1 RES1   0.0000
   237 H14      1.4196   4.5284  -1.9957   H         1 RES1   0.0000
   238 Fe1      5.0939  -5.0939  -5.0939   Fe        1 RES1   0.0000
   239 N1       5.8689  -4.4563  -6.8109   N.2       1 RES1   0.0000
   240 N2       3.4943  -4.1976  -5.8583   N.2       1 RES1   0.0000
   241 C1       7.1503  -4.5437  -7.2416   C.2       1 RES1   0.0000
   242 H1       7.8025  -4.9545  -6.6872   H         1 RES1   0.0000
   243 C2       7.5220  -4.0458  -8.4656   C.2       1 RES1   0.0000
   244 H2       8.4308  -4.1089  -8.7330   H         1 RES1   0.0000
   245 C3       6.6068  -3.4545  -9.3199   C.2       1 RES1   0.0000
   246 H3       6.8698  -3.1306 -10.1743   H         1 RES1   0.0000
   247 C4       5.2959  -3.3567  -8.8895   C.2       1 RES1   0.0000
   248 H4       4.6328  -2.9566  -9.4373   H         1 RES1   0.0000
   249 C5       4.9763  -3.8593  -7.6281   C.2       1 RES1   0.0000
   250 C6       3.6458  -3.7436  -7.0351   C.2       1 RES1   0.0000
   251 H6       2.9262  -3.3436  -7.5090   H         1 RES1   0.0000
   252 C7       2.1894  -3.9465  -5.2528   C.2       1 RES1   0.0000
   253 C8       1.3246  -4.9591  -4.9678   C.2       1 RES1   0.0000
   254 H8       1.5609  -5.8568  -5.1741   H         1 RES1   0.0000
   255 C9       0.1124  -4.6848  -4.3830   C.2       1 RES1   0.0000
   256 H9      -0.4848  -5.3937  -4.1741   H         1 RES1   0.0000
   257 C10     -0.2402  -3.3708  -4.0973   C.2       1 RES1   0.0000
   258 C11      0.6329  -2.3568  -4.4589   C.2       1 RES1   0.0000
   259 H11      0.3804  -1.4501  -4.3284   H         1 RES1   0.0000
   260 C12      1.8238  -2.6388  -4.9893   C.2       1 RES1   0.0000
   261 H12      2.4284  -1.9327  -5.1872   H         1 RES1   0.0000
   262 C13     -1.5118  -3.0329  -3.3610   C.2       1 RES1   0.0000
   263 C14     -2.2557  -1.9101  -3.7558   C.2       1 RES1   0.0000
   264 H14     -1.9957  -1.4196  -4.5284   H         1 RES1   0.0000
   265 N1      -6.8109   5.8689  -4.4563   N.2       1 RES1   0.0000
   266 N2      -5.8583   3.4943  -4.1976   N.2       1 RES1   0.0000
   267 C1      -7.2416   7.1503  -4.5437   C.2       1 RES1   0.0000
   268 H1      -6.6872   7.8025  -4.9545   H         1 RES1   0.0000
   269 C2      -8.4656   7.5220  -4.0458   C.2       1 RES1   0.0000
   270 H2      -8.7330   8.4308  -4.1089   H         1 RES1   0.0000
   271 C3      -9.3199   6.6068  -3.4545   C.2       1 RES1   0.0000
   272 H3     -10.1743   6.8698  -3.1306   H         1 RES1   0.0000
   273 C4      -8.8895   5.2959  -3.3567   C.2       1 RES1   0.0000
   274 H4      -9.4373   4.6328  -2.9566   H         1 RES1   0.0000
   275 C5      -7.6281   4.9763  -3.8593   C.2       1 RES1   0.0000
   276 C6      -7.0351   3.6458  -3.7436   C.2       1 RES1   0.0000
   277 H6      -7.5090   2.9262  -3.3436   H         1 RES1   0.0000
   278 C7      -5.2528   2.1894  -3.9465   C.2       1 RES1   0.0000
   279 C8      -4.9678   1.3246  -4.9591   C.2       1 RES1   0.0000
   280 H8      -5.1741   1.5609  -5.8568   H         1 RES1   0.0000
   281 C9      -4.3830   0.1124  -4.6848   C.2       1 RES1   0.0000
   282 H9      -4.1741  -0.4848  -5.3937   H         1 RES1   0.0000
   283 C10     -4.0973  -0.2402  -3.3708   C.2       1 RES1   0.0000
   284 C11     -4.4589   0.6329  -2.3568   C.2       1 RES1   0.0000
   285 H11     -4.3284   0.3804  -1.4501   H         1 RES1   0.0000
   286 C12     -4.9893   1.8238  -2.6388   C.2       1 RES1   0.0000
   287 H12     -5.1872   2.4284  -1.9327   H         1 RES1   0.0000
   288 C13     -3.3610  -1.5118  -3.0329   C.2       1 RES1   0.0000
   289 C14     -3.7558  -2.2557  -1.9101   C.2       1 RES1   0.0000
   290 H14     -4.5284  -1.9957  -1.4196   H         1 RES1   0.0000
   291 N1      -4.4563  -6.8109   5.8689   N.2       1 RES1   0.0000
   292 N2      -4.1976  -5.8583   3.4943   N.2       1 RES1   0.0000
   293 C1      -4.5437  -7.2416   7.1503   C.2       1 RES1   0.0000
   294 H1      -4.9545  -6.6872   7.8025   H         1 RES1   0.0000
   295 C2      -4.0458  -8.4656   7.5220   C.2       1 RES1   0.0000
   296 H2      -4.1089  -8.7330   8.4308   H         1 RES1   0.0000
   297 C3      -3.4545  -9.3199   6.6068   C.2       1 RES1   0.0000
   298 H3      -3.1306 -10.1743   6.8698   H         1 RES1   0.0000
   299 C4      -3.3567  -8.8895   5.2959   C.2       1 RES1   0.0000
   300 H4      -2.9566  -9.4373   4.6328   H         1 RES1   0.0000
   301 C5      -3.8593  -7.6281   4.9763   C.2       1 RES1   0.0000
   302 C6      -3.7436  -7.0351   3.6458   C.2       1 RES1   0.0000
   303 H6      -3.3436  -7.5090   2.9262   H         1 RES1   0.0000
   304 C7      -3.9465  -5.2528   2.1894   C.2       1 RES1   0.0000
   305 C8      -4.9591  -4.9678   1.3246   C.2       1 RES1   0.0000
   306 H8      -5.8568  -5.1741   1.5609   H         1 RES1   0.0000
   307 C9      -4.6848  -4.3830   0.1124   C.2       1 RES1   0.0000
   308 H9      -5.3937  -4.1741  -0.4848   H         1 RES1   0.0000
   309 C10     -3.3708  -4.0973  -0.2402   C.2       1 RES1   0.0000
   310 C11     -2.3568  -4.4589   0.6329   C.2       1 RES1   0.0000
   311 H11     -1.4501  -4.3284   0.3805   H         1 RES1   0.0000
   312 C12     -2.6388  -4.9893   1.8238   C.2       1 RES1   0.0000
   313 H12     -1.9327  -5.1872   2.4284   H         1 RES1   0.0000
   314 C13     -3.0329  -3.3610  -1.5118   C.2       1 RES1   0.0000
   315 C14     -1.9101  -3.7558  -2.2557   C.2       1 RES1   0.0000
   316 H14     -1.4196  -4.5284  -1.9957   H         1 RES1   0.0000
@<TRIPOS>BOND
     1     1     2   un
     2     1     3   un
     3     1   107   un
     4     1   108   un
     5     1   212   un
     6     1   213   un
     7     2     4   un
     8     2    12   un
     9     3    13   un
    10     3    15   un
    11     4     5    1
    12     4     6   un
    13     6     7    1
    14     6     8   un
    15     8     9    1
    16     8    10   un
    17    10    11    1
    18    10    12   un
    19    12    13   un
    20    13    14    1
    21    15    16   un
    22    15    23   un
    23    16    17    1
    24    16    18   un
    25    18    19    1
    26    18    20   un
    27    20    21   un
    28    20    25   un
    29    21    22    1
    30    21    23   un
    31    23    24    1
    32    25    26   un
    33    25    78   un
    34    26    27    1
    35    26    51   un
    36    28    30   un
    37    28    38   un
    38    28    80   un
    39    29    39   un
    40    29    41   un
    41    29    80   un
    42    30    31    1
    43    30    32   un
    44    32    33    1
    45    32    34   un
    46    34    35    1
    47    34    36   un
    48    36    37    1
    49    36    38   un
    50    38    39   un
    51    39    40    1
    52    41    42   un
    53    41    49   un
    54    42    43    1
    55    42    44   un
    56    44    45    1
    57    44    46   un
    58    46    47   un
    59    46    51   un
    60    47    48    1
    61    47    49   un
    62    49    50    1
    63    51    52   un
    64    52    53    1
    65    52    77   un
    66    54    56   un
    67    54    64   un
    68    54   159   un
    69    55    65   un
    70    55    67   un
    71    55   159   un
    72    56    57    1
    73    56    58   un
    74    58    59    1
    75    58    60   un
    76    60    61    1
    77    60    62   un
    78    62    63    1
    79    62    64   un
    80    64    65   un
    81    65    66    1
    82    67    68   un
    83    67    75   un
    84    68    69    1
    85    68    70   un
    86    70    71    1
    87    70    72   un
    88    72    73   un
    89    72    77   un
    90    73    74    1
    91    73    75   un
    92    75    76    1
    93    77    78   un
    94    78    79    1
    95    80    81   un
    96    80    82   un
    97    80   291   un
    98    80   292   un
    99    81    83   un
   100    81    91   un
   101    82    92   un
   102    82    94   un
   103    83    84    1
   104    83    85   un
   105    85    86    1
   106    85    87   un
   107    87    88    1
   108    87    89   un
   109    89    90    1
   110    89    91   un
   111    91    92   un
   112    92    93    1
   113    94    95   un
   114    94   102   un
   115    95    96    1
   116    95    97   un
   117    97    98    1
   118    97    99   un
   119    99   100   un
   120    99   104   un
   121   100   101    1
   122   100   102   un
   123   102   103    1
   124   104   105   un
   125   104   157   un
   126   105   106    1
   127   105   130   un
   128   107   109   un
   129   107   117   un
   130   108   118   un
   131   108   120   un
   132   109   110    1
   133   109   111   un
   134   111   112    1
   135   111   113   un
   136   113   114    1
   137   113   115   un
   138   115   116    1
   139   115   117   un
   140   117   118   un
   141   118   119    1
   142   120   121   un
   143   120   128   un
   144   121   122    1
   145   121   123   un
   146   123   124    1
   147   123   125   un
   148   125   126   un
   149   125   130   un
   150   126   127    1
   151   126   128   un
   152   128   129    1
   153   130   131   un
   154   131   132    1
   155   131   156   un
   156   133   135   un
   157   133   143   un
   158   133   238   un
   159   134   144   un
   160   134   146   un
   161   134   238   un
   162   135   136    1
   163   135   137   un
   164   137   138    1
   165   137   139   un
   166   139   140    1
   167   139   141   un
   168   141   142    1
   169   141   143   un
   170   143   144   un
   171   144   145    1
   172   146   147   un
   173   146   154   un
   174   147   148    1
   175   147   149   un
   176   149   150    1
   177   149   151   un
   178   151   152   un
   179   151   156   un
   180   152   153    1
   181   152   154   un
   182   154   155    1
   183   156   157   un
   184   157   158    1
   185   159   160   un
   186   159   161   un
   187   159   265   un
   188   159   266   un
   189   160   162   un
   190   160   170   un
   191   161   171   un
   192   161   173   un
   193   162   163    1
   194   162   164   un
   195   164   165    1
   196   164   166   un
   197   166   167    1
   198   166   168   un
   199   168   169    1
   200   168   170   un
   201   170   171   un
   202   171   172    1
   203   173   174   un
   204   173   181   un
   205   174   175    1
   206   174   176   un
   207   176   177    1
   208   176   178   un
   209   178   179   un
   210   178   183   un
   211   179   180    1
   212   179   181   un
   213   181   182    1
   214   183   184   un
   215   183   236   un
   216   184   185    1
   217   184   209   un
   218   186   188   un
   219   186   196   un
   220   186   238   un
   221   187   197   un
   222   187   199   un
   223   187   238   un
   224   188   189    1
   225   188   190   un
   226   190   191    1
   227   190   192   un
   228   192   193    1
   229   192   194   un
   230   194   195    1
   231   194   196   un
   232   196   197   un
   233   197   198    1
   234   199   200   un
   235   199   207   un
   236   200   201    1
   237   200   202   un
   238   202   203    1
   239   202   204   un
   240   204   205   un
   241   204   209   un
   242   205   206    1
   243   205   207   un
   244   207   208    1
   245   209   210   un
   246   210   211    1
   247   210   235   un
   248   212   214   un
   249   212   222   un
   250   213   223   un
   251   213   225   un
   252   214   215    1
   253   214   216   un
   254   216   217    1
   255   216   218   un
   256   218   219    1
   257   218   220   un
   258   220   221    1
   259   220   222   un
   260   222   223   un
   261   223   224    1
   262   225   226   un
   263   225   233   un
   264   226   227    1
   265   226   228   un
   266   228   229    1
   267   228   230   un
   268   230   231   un
   269   230   235   un
   270   231   232    1
   271   231   233   un
   272   233   234    1
   273   235   236   un
   274   236   237    1
   275   238   239   un
   276   238   240   un
   277   239   241   un
   278   239   249   un
   279   240   250   un
   280   240   252   un
   281   241   242    1
   282   241   243   un
   283   243   244    1
   284   243   245   un
   285   245   246    1
   286   245   247   un
   287   247   248    1
   288   247   249   un
   289   249   250   un
   290   250   251    1
   291   252   253   un
   292   252   260   un
   293   253   254    1
   294   253   255   un
   295   255   256    1
   296   255   257   un
   297   257   258   un
   298   257   262   un
   299   258   259    1
   300   258   260   un
   301   260   261    1
   302   262   263   un
   303   262   315   un
   304   263   264    1
   305   263   288   un
   306   265   267   un
   307   265   275   un
   308   266   276   un
   309   266   278   un
   310   267   268    1
   311   267   269   un
   312   269   270    1
   313   269   271   un
   314   271   272    1
   315   271   273   un
   316   273   274    1
   317   273   275   un
   318   275   276   un
   319   276   277    1
   320   278   279   un
   321   278   286   un
   322   279   280    1
   323   279   281   un
   324   281   282    1
   325   281   283   un
   326   283   284   un
   327   283   288   un
   328   284   285    1
   329   284   286   un
   330   286   287    1
   331   288   289   un
   332   289   290    1
   333   289   314   un
   334   291   293   un
   335   291   301   un
   336   292   302   un
   337   292   304   un
   338   293   294    1
   339   293   295   un
   340   295   296    1
   341   295   297   un
   342   297   298    1
   343   297   299   un
   344   299   300    1
   345   299   301   un
   346   301   302   un
   347   302   303    1
   348   304   305   un
   349   304   312   un
   350   305   306    1
   351   305   307   un
   352   307   308    1
   353   307   309   un
   354   309   310   un
   355   309   314   un
   356   310   311    1
   357   310   312   un
   358   312   313    1
   359   314   315   un
   360   315   316    1
@<TRIPOS>SUBSTRUCTURE
     1 RES1        1 GROUP             0 ****  ****    0  
@<TRIPOS>CRYSIN
   21.7400   21.7400   21.7400   90.0000   90.0000   90.0000   197     1
