@<TRIPOS>MOLECULE
cubic_f_1
    83    90     4     0     0
SMALL
NO_CHARGES
****
Generated from the CSD

@<TRIPOS>ATOM
     1 Pd1     34.7707  19.7424  34.7707   Du        1 RES1   0.0000
     2 Fe1     27.4944  18.8666  27.4944   Fe        2 RES2   0.0000
     3 N1      25.8787  20.4823  25.8787   N.3       2 RES2   0.0000
     4 N2      28.7021  20.1392  26.2171   N.2       2 RES2   0.0000
     5 N3      29.3141  19.4438  28.6047   N.2       2 RES2   0.0000
     6 N4      31.1592  19.7683  29.8055   N.pl3     2 RES2   0.0000
     7 N5      33.6998  19.7405  33.0971   N.ar      2 RES2   0.0000
     8 C1      26.8847  21.2843  25.1926   C.3       2 RES2   0.0000
     9 H1A     26.4685  21.6639  24.3793   H         2 RES2   0.0000
    10 H1B     27.1200  22.0435  25.7834   H         2 RES2   0.0000
    11 C2      28.1179  20.6214  24.8031   C.3       2 RES2   0.0000
    12 H2A     28.7348  21.2486  24.3503   H         2 RES2   0.0000
    13 H2B     27.9374  19.8528  24.2029   H         2 RES2   0.0000
    14 C3      29.9168  20.5982  26.5139   C.2       2 RES2   0.0000
    15 H3      30.4614  21.1168  25.9368   H         2 RES2   0.0000
    16 C4      30.2830  20.1717  27.8954   C.2       2 RES2   0.0000
    17 C5      31.3308  20.4406  28.5908   C.2       2 RES2   0.0000
    18 H5      32.0656  20.9813  28.3296   H         2 RES2   0.0000
    19 C6      29.9678  19.2027  29.6896   C.2       2 RES2   0.0000
    20 H6      29.6081  18.6512  30.3766   H         2 RES2   0.0000
    21 C9      32.0633  19.7405  30.9042   C.ar      2 RES2   0.0000
    22 C10     32.9024  20.7048  31.1175   C.ar      2 RES2   0.0000
    23 H10     32.9501  21.4091  30.4797   H         2 RES2   0.0000
    24 C7      32.9256  18.7113  32.7772   C.ar      2 RES2   0.0000
    25 H7      32.9392  17.9423  33.3362   H         2 RES2   0.0000
    26 C8      32.1143  18.7113  31.6970   C.ar      2 RES2   0.0000
    27 H8      31.5734  17.9508  31.5133   H         2 RES2   0.0000
    28 C11     33.7508  20.7697  32.2441   C.ar      2 RES2   0.0000
    29 H11     34.3326  21.5099  32.3892   H         2 RES2   0.0000
    30 N2      26.2171  17.6589  26.2218   N.2       2 RES2   0.0000
    31 N3      28.6047  17.0469  26.9172   N.2       2 RES2   0.0000
    32 N4      29.8055  15.2018  26.5927   N.pl3     2 RES2   0.0000
    33 N5      33.0971  12.6612  26.6205   N.ar      2 RES2   0.0000
    34 C1      25.1926  19.4763  25.0767   C.3       2 RES2   0.0000
    35 H1A     24.3793  19.8925  24.6971   H         2 RES2   0.0000
    36 H1B     25.7834  19.2410  24.3175   H         2 RES2   0.0000
    37 C2      24.8031  18.2431  25.7396   C.3       2 RES2   0.0000
    38 H2A     24.3503  17.6262  25.1124   H         2 RES2   0.0000
    39 H2B     24.2029  18.4236  26.5082   H         2 RES2   0.0000
    40 C3      26.5139  16.4442  25.7628   C.2       2 RES2   0.0000
    41 H3      25.9368  15.8996  25.2442   H         2 RES2   0.0000
    42 C4      27.8954  16.0780  26.1893   C.2       2 RES2   0.0000
    43 C5      28.5908  15.0302  25.9204   C.2       2 RES2   0.0000
    44 H5      28.3296  14.2954  25.3797   H         2 RES2   0.0000
    45 C6      29.6896  16.3932  27.1583   C.2       2 RES2   0.0000
    46 H6      30.3766  16.7529  27.7098   H         2 RES2   0.0000
    47 C9      30.9042  14.2977  26.6205   C.ar      2 RES2   0.0000
    48 C10     31.1175  13.4586  25.6562   C.ar      2 RES2   0.0000
    49 H10     30.4797  13.4109  24.9519   H         2 RES2   0.0000
    50 C7      32.7772  13.4354  27.6497   C.ar      2 RES2   0.0000
    51 H7      33.3362  13.4218  28.4187   H         2 RES2   0.0000
    52 C8      31.6970  14.2467  27.6497   C.ar      2 RES2   0.0000
    53 H8      31.5133  14.7876  28.4102   H         2 RES2   0.0000
    54 C11     32.2441  12.6102  25.5913   C.ar      2 RES2   0.0000
    55 H11     32.3892  12.0284  24.8511   H         2 RES2   0.0000
    56 N2      26.2218  20.1439  28.7021   N.2       2 RES2   0.0000
    57 N3      26.9172  17.7563  29.3141   N.2       2 RES2   0.0000
    58 N4      26.5927  16.5555  31.1592   N.pl3     2 RES2   0.0000
    59 N5      26.6205  13.2639  33.6998   N.ar      2 RES2   0.0000
    60 C1      25.0767  21.1684  26.8847   C.3       2 RES2   0.0000
    61 H1A     24.6971  21.9817  26.4685   H         2 RES2   0.0000
    62 H1B     24.3175  20.5776  27.1200   H         2 RES2   0.0000
    63 C2      25.7396  21.5579  28.1179   C.3       2 RES2   0.0000
    64 H2A     25.1124  22.0107  28.7348   H         2 RES2   0.0000
    65 H2B     26.5082  22.1581  27.9374   H         2 RES2   0.0000
    66 C3      25.7628  19.8471  29.9168   C.2       2 RES2   0.0000
    67 H3      25.2442  20.4242  30.4614   H         2 RES2   0.0000
    68 C4      26.1893  18.4656  30.2830   C.2       2 RES2   0.0000
    69 C5      25.9204  17.7702  31.3308   C.2       2 RES2   0.0000
    70 H5      25.3797  18.0314  32.0656   H         2 RES2   0.0000
    71 C6      27.1583  16.6714  29.9678   C.2       2 RES2   0.0000
    72 H6      27.7098  15.9844  29.6081   H         2 RES2   0.0000
    73 C9      26.6205  15.4568  32.0633   C.ar      2 RES2   0.0000
    74 C10     25.6562  15.2435  32.9024   C.ar      2 RES2   0.0000
    75 H10     24.9519  15.8813  32.9501   H         2 RES2   0.0000
    76 C7      27.6497  13.5838  32.9256   C.ar      2 RES2   0.0000
    77 H7      28.4187  13.0248  32.9392   H         2 RES2   0.0000
    78 C8      27.6497  14.6640  32.1143   C.ar      2 RES2   0.0000
    79 H8      28.4102  14.8477  31.5734   H         2 RES2   0.0000
    80 C11     25.5913  14.1169  33.7508   C.ar      2 RES2   0.0000
    81 H11     24.8511  13.9718  34.3326   H         2 RES2   0.0000
    82 Pd1     34.7707  11.5903  26.6186   Du        3 RES3   0.0000
    83 Pd1     26.6186  11.5903  34.7707   Du        4 RES4   0.0000
@<TRIPOS>BOND
     1     2     4    1
     2     2     5    1
     3     2    30    1
     4     2    31    1
     5     2    56    1
     6     2    57    1
     7     3     8    1
     8     3    34    1
     9     3    60    1
    10     4    11    1
    11     4    14    2
    12     5    16    1
    13     5    19    2
    14     6    17    1
    15     6    19    1
    16     6    21    1
    17     7    24   ar
    18     7    28   ar
    19     8     9    1
    20     8    10    1
    21     8    11    1
    22    11    12    1
    23    11    13    1
    24    14    15    1
    25    14    16    1
    26    16    17    2
    27    17    18    1
    28    19    20    1
    29    21    22   ar
    30    21    26   ar
    31    22    23    1
    32    22    28   ar
    33    24    25    1
    34    24    26   ar
    35    26    27    1
    36    28    29    1
    37    30    37    1
    38    30    40    2
    39    31    42    1
    40    31    45    2
    41    32    43    1
    42    32    45    1
    43    32    47    1
    44    33    50   ar
    45    33    54   ar
    46    34    35    1
    47    34    36    1
    48    34    37    1
    49    37    38    1
    50    37    39    1
    51    40    41    1
    52    40    42    1
    53    42    43    2
    54    43    44    1
    55    45    46    1
    56    47    48   ar
    57    47    52   ar
    58    48    49    1
    59    48    54   ar
    60    50    51    1
    61    50    52   ar
    62    52    53    1
    63    54    55    1
    64    56    63    1
    65    56    66    2
    66    57    68    1
    67    57    71    2
    68    58    69    1
    69    58    71    1
    70    58    73    1
    71    59    76   ar
    72    59    80   ar
    73    60    61    1
    74    60    62    1
    75    60    63    1
    76    63    64    1
    77    63    65    1
    78    66    67    1
    79    66    68    1
    80    68    69    2
    81    69    70    1
    82    71    72    1
    83    73    74   ar
    84    73    78   ar
    85    74    75    1
    86    74    80   ar
    87    76    77    1
    88    76    78   ar
    89    78    79    1
    90    80    81    1
@<TRIPOS>SUBSTRUCTURE
     1 RES1        1 GROUP             0 ****  ****    0  
     2 RES2        2 GROUP             0 ****  ****    0  
     3 RES3       82 GROUP             0 ****  ****    0  
     4 RES4       83 GROUP             0 ****  ****    0  
@<TRIPOS>CRYSIN
   46.3610   46.3610   46.3610   90.0000   90.0000   90.0000   226     1
