@<TRIPOS>MOLECULE
shelxl
    78    84     1     0     0
SMALL
NO_CHARGES
****
Generated from the CSD

@<TRIPOS>ATOM
     1 N1       5.8689   4.4563   6.8109   N.ar      1 RES1   0.0000
     2 N2       3.4943   4.1976   5.8583   N.2       1 RES1   0.0000
     3 C1       7.1503   4.5437   7.2416   C.ar      1 RES1   0.0000
     4 H1       7.8025   4.9545   6.6872   H         1 RES1   0.0000
     5 C2       7.5220   4.0458   8.4656   C.ar      1 RES1   0.0000
     6 H2       8.4308   4.1089   8.7330   H         1 RES1   0.0000
     7 C3       6.6068   3.4545   9.3199   C.ar      1 RES1   0.0000
     8 H3       6.8698   3.1306  10.1743   H         1 RES1   0.0000
     9 C4       5.2959   3.3567   8.8895   C.ar      1 RES1   0.0000
    10 H4       4.6328   2.9566   9.4373   H         1 RES1   0.0000
    11 C5       4.9763   3.8593   7.6281   C.ar      1 RES1   0.0000
    12 C6       3.6458   3.7436   7.0351   C.2       1 RES1   0.0000
    13 H6       2.9262   3.3436   7.5090   H         1 RES1   0.0000
    14 C7       2.1894   3.9465   5.2528   C.ar      1 RES1   0.0000
    15 C8       1.3246   4.9591   4.9678   C.ar      1 RES1   0.0000
    16 H8       1.5609   5.8568   5.1741   H         1 RES1   0.0000
    17 C9       0.1124   4.6848   4.3830   C.ar      1 RES1   0.0000
    18 H9      -0.4848   5.3937   4.1741   H         1 RES1   0.0000
    19 C10     -0.2402   3.3708   4.0973   C.ar      1 RES1   0.0000
    20 C11      0.6329   2.3568   4.4589   C.ar      1 RES1   0.0000
    21 H11      0.3805   1.4501   4.3284   H         1 RES1   0.0000
    22 C12      1.8238   2.6388   4.9893   C.ar      1 RES1   0.0000
    23 H12      2.4284   1.9327   5.1872   H         1 RES1   0.0000
    24 C13     -1.5118   3.0329   3.3610   C.ar      1 RES1   0.0000
    25 C14     -2.2557   1.9101   3.7558   C.ar      1 RES1   0.0000
    26 H14     -1.9957   1.4196   4.5284   H         1 RES1   0.0000
    27 N1      -6.8109  -5.8689   4.4563   N.ar      1 RES1   0.0000
    28 N2      -5.8583  -3.4943   4.1976   N.2       1 RES1   0.0000
    29 C1      -7.2416  -7.1503   4.5437   C.ar      1 RES1   0.0000
    30 H1      -6.6872  -7.8025   4.9545   H         1 RES1   0.0000
    31 C2      -8.4656  -7.5220   4.0458   C.ar      1 RES1   0.0000
    32 H2      -8.7330  -8.4308   4.1089   H         1 RES1   0.0000
    33 C3      -9.3199  -6.6068   3.4545   C.ar      1 RES1   0.0000
    34 H3     -10.1743  -6.8698   3.1306   H         1 RES1   0.0000
    35 C4      -8.8895  -5.2959   3.3567   C.ar      1 RES1   0.0000
    36 H4      -9.4373  -4.6328   2.9566   H         1 RES1   0.0000
    37 C5      -7.6281  -4.9763   3.8593   C.ar      1 RES1   0.0000
    38 C6      -7.0351  -3.6458   3.7436   C.2       1 RES1   0.0000
    39 H6      -7.5090  -2.9262   3.3436   H         1 RES1   0.0000
    40 C7      -5.2528  -2.1894   3.9465   C.ar      1 RES1   0.0000
    41 C8      -4.9678  -1.3246   4.9591   C.ar      1 RES1   0.0000
    42 H8      -5.1741  -1.5609   5.8568   H         1 RES1   0.0000
    43 C9      -4.3830  -0.1124   4.6848   C.ar      1 RES1   0.0000
    44 H9      -4.1741   0.4848   5.3937   H         1 RES1   0.0000
    45 C10     -4.0973   0.2402   3.3708   C.ar      1 RES1   0.0000
    46 C11     -4.4589  -0.6329   2.3568   C.ar      1 RES1   0.0000
    47 H11     -4.3284  -0.3804   1.4501   H         1 RES1   0.0000
    48 C12     -4.9893  -1.8238   2.6388   C.ar      1 RES1   0.0000
    49 H12     -5.1872  -2.4284   1.9327   H         1 RES1   0.0000
    50 C13     -3.3610   1.5118   3.0329   C.ar      1 RES1   0.0000
    51 C14     -3.7558   2.2557   1.9101   C.ar      1 RES1   0.0000
    52 H14     -4.5284   1.9957   1.4196   H         1 RES1   0.0000
    53 N1      -4.4563   6.8109  -5.8689   N.ar      1 RES1   0.0000
    54 N2      -4.1976   5.8583  -3.4943   N.2       1 RES1   0.0000
    55 C1      -4.5437   7.2416  -7.1503   C.ar      1 RES1   0.0000
    56 H1      -4.9545   6.6872  -7.8025   H         1 RES1   0.0000
    57 C2      -4.0458   8.4656  -7.5220   C.ar      1 RES1   0.0000
    58 H2      -4.1089   8.7330  -8.4308   H         1 RES1   0.0000
    59 C3      -3.4545   9.3199  -6.6068   C.ar      1 RES1   0.0000
    60 H3      -3.1306  10.1743  -6.8698   H         1 RES1   0.0000
    61 C4      -3.3567   8.8895  -5.2959   C.ar      1 RES1   0.0000
    62 H4      -2.9566   9.4373  -4.6328   H         1 RES1   0.0000
    63 C5      -3.8593   7.6281  -4.9763   C.ar      1 RES1   0.0000
    64 C6      -3.7436   7.0351  -3.6458   C.2       1 RES1   0.0000
    65 H6      -3.3436   7.5090  -2.9262   H         1 RES1   0.0000
    66 C7      -3.9465   5.2528  -2.1894   C.ar      1 RES1   0.0000
    67 C8      -4.9591   4.9678  -1.3246   C.ar      1 RES1   0.0000
    68 H8      -5.8568   5.1741  -1.5609   H         1 RES1   0.0000
    69 C9      -4.6848   4.3830  -0.1124   C.ar      1 RES1   0.0000
    70 H9      -5.3937   4.1741   0.4848   H         1 RES1   0.0000
    71 C10     -3.3708   4.0973   0.2402   C.ar      1 RES1   0.0000
    72 C11     -2.3568   4.4589  -0.6329   C.ar      1 RES1   0.0000
    73 H11     -1.4501   4.3284  -0.3805   H         1 RES1   0.0000
    74 C12     -2.6388   4.9893  -1.8238   C.ar      1 RES1   0.0000
    75 H12     -1.9327   5.1872  -2.4284   H         1 RES1   0.0000
    76 C13     -3.0329   3.3610   1.5118   C.ar      1 RES1   0.0000
    77 C14     -1.9101   3.7558   2.2557   C.ar      1 RES1   0.0000
    78 H14     -1.4196   4.5284   1.9957   H         1 RES1   0.0000
@<TRIPOS>BOND
     1     1     3   ar
     2     1    11   ar
     3     2    12    2
     4     2    14    1
     5     3     4    1
     6     3     5   ar
     7     5     6    1
     8     5     7   ar
     9     7     8    1
    10     7     9   ar
    11     9    10    1
    12     9    11   ar
    13    11    12    1
    14    12    13    1
    15    14    15   ar
    16    14    22   ar
    17    15    16    1
    18    15    17   ar
    19    17    18    1
    20    17    19   ar
    21    19    20   ar
    22    19    24    1
    23    20    21    1
    24    20    22   ar
    25    22    23    1
    26    24    25   ar
    27    24    77   ar
    28    25    26    1
    29    25    50   ar
    30    27    29   ar
    31    27    37   ar
    32    28    38    2
    33    28    40    1
    34    29    30    1
    35    29    31   ar
    36    31    32    1
    37    31    33   ar
    38    33    34    1
    39    33    35   ar
    40    35    36    1
    41    35    37   ar
    42    37    38    1
    43    38    39    1
    44    40    41   ar
    45    40    48   ar
    46    41    42    1
    47    41    43   ar
    48    43    44    1
    49    43    45   ar
    50    45    46   ar
    51    45    50    1
    52    46    47    1
    53    46    48   ar
    54    48    49    1
    55    50    51   ar
    56    51    52    1
    57    51    76   ar
    58    53    55   ar
    59    53    63   ar
    60    54    64    2
    61    54    66    1
    62    55    56    1
    63    55    57   ar
    64    57    58    1
    65    57    59   ar
    66    59    60    1
    67    59    61   ar
    68    61    62    1
    69    61    63   ar
    70    63    64    1
    71    64    65    1
    72    66    67   ar
    73    66    74   ar
    74    67    68    1
    75    67    69   ar
    76    69    70    1
    77    69    71   ar
    78    71    72   ar
    79    71    76    1
    80    72    73    1
    81    72    74   ar
    82    74    75    1
    83    76    77   ar
    84    77    78    1
@<TRIPOS>SUBSTRUCTURE
     1 RES1        1 GROUP             0 ****  ****    0  
@<TRIPOS>CRYSIN
   21.7400   21.7400   21.7400   90.0000   90.0000   90.0000   197     1
